6
sym_fod1='X' sym_fod2='He'
Li 0.0 0.0 0.0
H 0.0 0.0 1.4
X 6.924405334759934e-18 -1.410057615662197e-17 -0.0050181720455073076
X -2.941683195714048e-16 6.340346383701974e-16 1.2544301879409647
He 5.9441811894720176e-18 -1.98942079160632e-17 -0.005018172230172278
He -1.4529840934508413e-16 2.300390808565113e-16 1.2544302407200942
